examples/13NodeIEEE/OpenDSS files/IEEE13Nodeckt_Curr_Seq.Txt

SYMMETRICAL COMPONENT CURRENTS BY CIRCUIT ELEMENT (first 3 phases)

Element            Term      I1         I2         %I2/I1    I0         %I0/I1   %Normal %Emergency

"VSOURCE.SOURCE" .   1      566.94        67.73    11.95      62.058    10.95      0.00     0.00
   -                 2      566.94        67.73    11.95      62.058    10.95      0.00     0.00
"TRANSFORMER.XFM1"   1  6.971E-005   8.333E-007     1.20  1.4197E-006     2.04      0.00     0.00
   -                 2  2.3427E-012   6.2772E-013    26.79  1.715E-012    73.21      0.00     0.00
"LINE.650632" ....   1      566.94        67.73    11.95      62.058    10.95    162.18   108.12
   -                 2      566.94        67.73    11.95      62.058    10.95      0.00     0.00
"LINE.632670" ....   1       433.4       104.48    24.11      86.048    19.85    132.23    88.15
   -                 2       433.4       104.48    24.11      86.048    19.85      0.00     0.00
"LINE.670671" ....   1         401       103.98    25.93      86.897    21.67    130.15    86.77
   -                 2         401       103.98    25.93      86.897    21.67      0.00     0.00
"LINE.671680" ....   1   0.0005702   1.3788E-005     2.42  1.3136E-005     2.30      0.00     0.00
   -                 2  1.2723E-012   2.1732E-012   170.81  3.2155E-012   252.74      0.00     0.00
"LINE.632633" ....   1      68.341       6.2653     9.17      6.6668     9.76     20.27    13.51
   -                 2      68.341       6.2653     9.17      6.6668     9.76      0.00     0.00
"LINE.632645" ....   1      142.42            0     0.00           0     0.00     35.60    23.74
   -                 2      142.42            0     0.00           0     0.00      0.00     0.00
"LINE.645646" ....   1      63.963            0     0.00           0     0.00     15.99    10.66
   -                 2      63.963            0     0.00           0     0.00      0.00     0.00
"LINE.692675" ....   1      138.18       46.568    33.70      65.747    47.58     56.96    37.97
   -                 2      138.19       46.568    33.70      65.746    47.58      0.00     0.00
"LINE.671684" ....   1      61.254            0     0.00           0     0.00     15.31    10.21
   -                 2      61.254            0     0.00           0     0.00      0.00     0.00
"LINE.684611" ....   1       76.12            0     0.00           0     0.00     19.03    12.69
   -                 2       76.12            0     0.00           0     0.00      0.00     0.00
"LINE.684652" ....   1      61.254            0     0.00           0     0.00     15.31    10.21
   -                 2      61.271            0     0.00           0     0.00      0.00     0.00
"LINE.671692" ....   1      169.12       72.509    42.87      65.747    38.88     66.80    44.53
   -                 2      169.12       72.509    42.87      65.747    38.88      0.00     0.00
"LOAD.671" .......   1      186.34       6.9509     3.73      4.1884     2.25      0.00     0.00
"LOAD.633A" ......   1      81.081            0     0.00           0     0.00      0.00     0.00
"LOAD.633B" ......   1      60.327            0     0.00           0     0.00      0.00     0.00
"LOAD.633C" ......   1      63.633            0     0.00           0     0.00      0.00     0.00
"LOAD.645" .......   1      85.467            0     0.00           0     0.00      0.00     0.00
"LOAD.646" .......   1      63.962            0     0.00           0     0.00      0.00     0.00
"LOAD.692" .......   1      54.658            0     0.00           0     0.00      0.00     0.00
"LOAD.675A" ......   1      227.87            0     0.00           0     0.00      0.00     0.00
"LOAD.675B" ......   1      36.129            0     0.00           0     0.00      0.00     0.00
"LOAD.675C" ......   1      153.43            0     0.00           0     0.00      0.00     0.00
"LOAD.611" .......   1      76.121            0     0.00           0     0.00      0.00     0.00
"LOAD.652" .......   1      61.273            0     0.00           0     0.00      0.00     0.00
"LOAD.670A" ......   1      8.3204            0     0.00           0     0.00      0.00     0.00
"LOAD.670B" ......   1      30.534            0     0.00           0     0.00      0.00     0.00
"LOAD.670C" ......   1      58.387            0     0.00           0     0.00      0.00     0.00
"LOAD.650" .......   1           0            0     0.00           0     0.00      0.00     0.00
"LOAD.632" .......   1           0            0     0.00           0     0.00      0.00     0.00
"LOAD.680" .......   1           0            0     0.00           0     0.00      0.00     0.00
"LOAD.684" .......   1           0            0     0.00           0     0.00      0.00     0.00
