examples/13NodeIEEE/OpenDSS files/IEEE13Nodeckt_Power_elem_MVA.txt

CIRCUIT ELEMENT POWER FLOW

(Power Flow into element from indicated Bus)

Power Delivery Elements

  Bus Phase     MW     +j   Mvar         MVA         PF

ELEMENT = "Vsource.SOURCE"
650      1        -1.2 +j     -0.9        1.5       0.8079
650      2        -1.0 +j     -0.6        1.1       0.8588
650      3        -1.3 +j     -1.0        1.6       0.8097
   TERMINAL TOTAL    -3.5 +j     -2.4        4.3       0.8225
650      0         0.0 +j      0.0        0.0       1.0000
650      0         0.0 +j      0.0        0.0       1.0000
650      0         0.0 +j      0.0        0.0       1.0000
   TERMINAL TOTAL     0.0 +j      0.0        0.0       1.0000

ELEMENT = "Transformer.XFM1"
633      1         0.0 +j      0.0        0.0       0.0000
633      2         0.0 +j      0.0        0.0       0.0000
633      3         0.0 +j      0.0        0.0       0.0000
633      0         0.0 +j      0.0        0.0       1.0000
   TERMINAL TOTAL     0.0 +j      0.0        0.0       0.0000
634      1         0.0 +j      0.0        0.0       0.8878
634      2         0.0 +j      0.0        0.0       1.0000
634      3         0.0 +j      0.0        0.0       0.5289
634      0         0.0 +j      0.0        0.0       1.0000
   TERMINAL TOTAL     0.0 +j      0.0        0.0       0.7360

ELEMENT = "Line.650632"
650      1         1.2 +j      0.9        1.5       0.8079
650      2         1.0 +j      0.6        1.1       0.8588
650      3         1.3 +j      1.0        1.6       0.8097
   TERMINAL TOTAL     3.5 +j      2.4        4.3       0.8225
632      1        -1.2 +j     -0.8        1.5       0.8331
632      2        -1.0 +j     -0.5        1.1       0.8726
632      3        -1.3 +j     -0.9        1.5       0.8289
   TERMINAL TOTAL    -3.5 +j     -2.2        4.1       0.8427

ELEMENT = "Line.632670"
632      1         1.1 +j      0.7        1.3       0.8346
632      2         0.5 +j      0.3        0.6       0.8484
632      3         1.1 +j      0.6        1.3       0.8610
   TERMINAL TOTAL     2.6 +j      1.7        3.1       0.8480
670      1        -1.1 +j     -0.7        1.3       0.8435
670      2        -0.5 +j     -0.3        0.6       0.8500
670      3        -1.1 +j     -0.6        1.2       0.8659
   TERMINAL TOTAL    -2.6 +j     -1.6        3.1       0.8539

ELEMENT = "Line.670671"
670      1         1.0 +j      0.7        1.2       0.8432
670      2         0.4 +j      0.3        0.5       0.8475
670      3         0.9 +j      0.5        1.1       0.8661
   TERMINAL TOTAL     2.4 +j      1.5        2.9       0.8529
671      1        -1.0 +j     -0.6        1.2       0.8610
671      2        -0.5 +j     -0.3        0.5       0.8506
671      3        -0.9 +j     -0.5        1.1       0.8740
   TERMINAL TOTAL    -2.4 +j     -1.4        2.8       0.8641

ELEMENT = "Line.671680"
671      1        -0.0 +j     -0.0        0.0       0.0264
671      2         0.0 +j     -0.0        0.0      -0.0109
671      3         0.0 +j     -0.0        0.0      -0.0144
   TERMINAL TOTAL     0.0 +j     -0.0        0.0      -0.0000
680      1         0.0 +j      0.0        0.0       0.7055
680      2        -0.0 +j     -0.0        0.0       0.0363
680      3         0.0 +j      0.0        0.0       1.0000
   TERMINAL TOTAL     0.0 +j     -0.0        0.0      -0.5642

ELEMENT = "Line.632633"
632      1         0.2 +j      0.1        0.2       0.8234
632      2         0.1 +j      0.1        0.2       0.7995
632      3         0.1 +j      0.1        0.2       0.7999
   TERMINAL TOTAL     0.4 +j      0.3        0.5       0.8092
633      1        -0.2 +j     -0.1        0.2       0.8240
633      2        -0.1 +j     -0.1        0.2       0.8000
633      3        -0.1 +j     -0.1        0.1       0.8000
   TERMINAL TOTAL    -0.4 +j     -0.3        0.5       0.8096

ELEMENT = "Line.632645"
632      2         0.3 +j      0.1        0.4       0.9315
632      3         0.1 +j      0.1        0.2       0.4920
   TERMINAL TOTAL     0.4 +j      0.3        0.5       0.8407
645      2        -0.3 +j     -0.1        0.4       0.9326
645      3        -0.1 +j     -0.1        0.2       0.4915
   TERMINAL TOTAL    -0.4 +j     -0.3        0.5       0.8413

ELEMENT = "Line.645646"
645      2         0.2 +j      0.0        0.2       0.9999
645      3         0.1 +j      0.1        0.2       0.4915
   TERMINAL TOTAL     0.2 +j      0.1        0.3       0.8671
646      2        -0.2 +j     -0.0        0.2       0.9999
646      3        -0.1 +j     -0.1        0.2       0.4908
   TERMINAL TOTAL    -0.2 +j     -0.1        0.3       0.8673

ELEMENT = "Line.692675"
692      1         0.5 +j      0.2        0.5       0.9302
692      2         0.1 +j      0.1        0.1       0.7493
692      3         0.3 +j      0.2        0.3       0.8084
   TERMINAL TOTAL     0.8 +j      0.5        0.9       0.8779
675      1        -0.5 +j     -0.2        0.5       0.9311
675      2        -0.1 +j     -0.1        0.1       0.7498
675      3        -0.3 +j     -0.2        0.3       0.8073
   TERMINAL TOTAL    -0.8 +j     -0.5        0.9       0.8781

ELEMENT = "Line.671684"
671      1         0.1 +j      0.1        0.1       0.8305
671      3         0.2 +j      0.1        0.2       0.9041
   TERMINAL TOTAL     0.3 +j      0.2        0.3       0.8731
684      1        -0.1 +j     -0.1        0.1       0.8310
684      3        -0.2 +j     -0.1        0.2       0.9043
   TERMINAL TOTAL    -0.3 +j     -0.2        0.3       0.8734

ELEMENT = "Line.684611"
684      3         0.2 +j      0.1        0.2       0.9043
   TERMINAL TOTAL     0.2 +j      0.1        0.2       0.9043
611      3        -0.2 +j     -0.1        0.2       0.9048
   TERMINAL TOTAL    -0.2 +j     -0.1        0.2       0.9048

ELEMENT = "Line.684652"
684      1         0.1 +j      0.1        0.1       0.8310
   TERMINAL TOTAL     0.1 +j      0.1        0.1       0.8310
652      1        -0.1 +j     -0.1        0.1       0.8300
   TERMINAL TOTAL    -0.1 +j     -0.1        0.1       0.8300

ELEMENT = "Line.671692"
671      1         0.5 +j      0.3        0.6       0.8625
671      2         0.1 +j      0.1        0.1       0.7493
671      3         0.4 +j      0.2        0.5       0.8673
   TERMINAL TOTAL     1.0 +j      0.6        1.2       0.8568
692      1        -0.5 +j     -0.3        0.6       0.8629
692      2        -0.1 +j     -0.1        0.1       0.7493
692      3        -0.4 +j     -0.2        0.5       0.8674
   TERMINAL TOTAL    -1.0 +j     -0.6        1.2       0.8570

= = = = = = = = = = = = = = = = = = =  = = = = = = = = = = =  = =

Power Conversion Elements

  Bus Phase     MW   +j  Mvar         MVA         PF

ELEMENT = "Load.671"
671      1       0.4 +j    0.2        0.4       0.8683
671      2       0.4 +j    0.2        0.4       0.8682
671      3       0.4 +j    0.2        0.4       0.8682
671      0       0.0 +j    0.0        0.0       1.0000
  TERMINAL TOTAL      1.1 +j      0.7        1.3       0.8682

ELEMENT = "Load.633A"
633      1       0.2 +j    0.1        0.2       0.8241
633      0       0.0 +j    0.0        0.0       1.0000
  TERMINAL TOTAL      0.2 +j      0.1        0.2       0.8241

ELEMENT = "Load.633B"
633      2       0.1 +j    0.1        0.2       0.8000
633      0       0.0 +j    0.0        0.0       1.0000
  TERMINAL TOTAL      0.1 +j      0.1        0.2       0.8000

ELEMENT = "Load.633C"
633      3       0.1 +j    0.1        0.1       0.8000
633      0       0.0 +j    0.0        0.0       1.0000
  TERMINAL TOTAL      0.1 +j      0.1        0.1       0.8000

ELEMENT = "Load.645"
645      2       0.2 +j    0.1        0.2       0.8056
645      0       0.0 +j    0.0        0.0       1.0000
  TERMINAL TOTAL      0.2 +j      0.1        0.2       0.8056

ELEMENT = "Load.646"
646      2       0.2 +j    0.0        0.2       0.9999
646      3       0.1 +j    0.1        0.2       0.4908
  TERMINAL TOTAL      0.2 +j      0.1        0.3       0.8673

ELEMENT = "Load.692"
692      1       0.0 +j    0.1        0.1       0.3405
692      3       0.1 +j    0.0        0.1       0.9776
  TERMINAL TOTAL      0.2 +j      0.1        0.2       0.7477

ELEMENT = "Load.675A"
675      1       0.5 +j    0.2        0.5       0.9311
675      0       0.0 +j    0.0        0.0       1.0000
  TERMINAL TOTAL      0.5 +j      0.2        0.5       0.9311

ELEMENT = "Load.675B"
675      2       0.1 +j    0.1        0.1       0.7498
675      0       0.0 +j    0.0        0.0       1.0000
  TERMINAL TOTAL      0.1 +j      0.1        0.1       0.7498

ELEMENT = "Load.675C"
675      3       0.3 +j    0.2        0.3       0.8073
675      0       0.0 +j    0.0        0.0       1.0000
  TERMINAL TOTAL      0.3 +j      0.2        0.3       0.8073

ELEMENT = "Load.611"
611      3       0.2 +j    0.1        0.2       0.9048
611      0       0.0 +j    0.0        0.0       1.0000
  TERMINAL TOTAL      0.2 +j      0.1        0.2       0.9048

ELEMENT = "Load.652"
652      1       0.1 +j    0.1        0.1       0.8301
652      0       0.0 +j    0.0        0.0       1.0000
  TERMINAL TOTAL      0.1 +j      0.1        0.1       0.8301

ELEMENT = "Load.670A"
670      1       0.0 +j    0.0        0.0       0.8620
670      0       0.0 +j    0.0        0.0       1.0000
  TERMINAL TOTAL      0.0 +j      0.0        0.0       0.8620

ELEMENT = "Load.670B"
670      2       0.1 +j    0.0        0.1       0.8666
670      0       0.0 +j    0.0        0.0       1.0000
  TERMINAL TOTAL      0.1 +j      0.0        0.1       0.8666

ELEMENT = "Load.670C"
670      3       0.1 +j    0.1        0.1       0.8646
670      0       0.0 +j    0.0        0.0       1.0000
  TERMINAL TOTAL      0.1 +j      0.1        0.1       0.8646

ELEMENT = "Load.650"
650      1       0.0 +j    0.0        0.0       1.0000
650      2       0.0 +j    0.0        0.0       1.0000
650      3       0.0 +j    0.0        0.0       1.0000
650      0       0.0 +j    0.0        0.0       1.0000
  TERMINAL TOTAL      0.0 +j      0.0        0.0       1.0000

ELEMENT = "Load.632"
632      1       0.0 +j    0.0        0.0       1.0000
632      2       0.0 +j    0.0        0.0       1.0000
632      3       0.0 +j    0.0        0.0       1.0000
632      0       0.0 +j    0.0        0.0       1.0000
  TERMINAL TOTAL      0.0 +j      0.0        0.0       1.0000

ELEMENT = "Load.680"
680      1       0.0 +j    0.0        0.0       1.0000
680      2       0.0 +j    0.0        0.0       1.0000
680      3       0.0 +j    0.0        0.0       1.0000
680      0       0.0 +j    0.0        0.0       1.0000
  TERMINAL TOTAL      0.0 +j      0.0        0.0       1.0000

ELEMENT = "Load.684"
684      1       0.0 +j    0.0        0.0       1.0000
684      3       0.0 +j    0.0        0.0       1.0000
  TERMINAL TOTAL      0.0 +j      0.0        0.0       1.0000


Total Circuit Losses =    0.1 +j    0.4
