examples/13NodeIEEE/OpenDSS files/IEEE13Nodeckt_Power_elem_kVA.txt

CIRCUIT ELEMENT POWER FLOW

(Power Flow into element from indicated Bus)

Power Delivery Elements

  Bus Phase     kW     +j   kvar         kVA         PF

ELEMENT = "Vsource.SOURCE"
650      1     -1242.6 +j   -906.3     1538.0       0.8079
650      2      -960.4 +j   -572.9     1118.3       0.8588
650      3     -1324.4 +j   -959.9     1635.7       0.8097
   TERMINAL TOTAL -3527.5 +j  -2439.1     4288.6       0.8225
650      0         0.0 +j      0.0        0.0       1.0000
650      0         0.0 +j      0.0        0.0       1.0000
650      0         0.0 +j      0.0        0.0       1.0000
   TERMINAL TOTAL     0.0 +j      0.0        0.0       1.0000

ELEMENT = "Transformer.XFM1"
633      1         0.0 +j      0.0        0.0       0.0000
633      2         0.0 +j      0.0        0.0       0.0000
633      3         0.0 +j      0.0        0.0       0.0000
633      0         0.0 +j      0.0        0.0       1.0000
   TERMINAL TOTAL     0.0 +j      0.0        0.0       0.0000
634      1         0.0 +j      0.0        0.0       0.8878
634      2         0.0 +j      0.0        0.0       1.0000
634      3         0.0 +j      0.0        0.0       0.5289
634      0         0.0 +j      0.0        0.0       1.0000
   TERMINAL TOTAL     0.0 +j      0.0        0.0       0.7360

ELEMENT = "Line.650632"
650      1      1242.6 +j    906.3     1538.0       0.8079
650      2       960.4 +j    572.9     1118.3       0.8588
650      3      1324.4 +j    959.9     1635.7       0.8097
   TERMINAL TOTAL  3527.5 +j   2439.1     4288.6       0.8225
632      1     -1220.6 +j   -810.3     1465.1       0.8331
632      2      -964.0 +j   -539.6     1104.7       0.8726
632      3     -1271.0 +j   -857.8     1533.3       0.8289
   TERMINAL TOTAL -3455.5 +j  -2207.7     4100.5       0.8427

ELEMENT = "Line.632670"
632      1      1060.2 +j    699.8     1270.4       0.8346
632      2       513.4 +j    320.2      605.1       0.8484
632      3      1076.3 +j    635.9     1250.1       0.8610
   TERMINAL TOTAL  2649.8 +j   1655.9     3124.7       0.8480
670      1     -1057.5 +j   -673.4     1253.7       0.8435
670      2      -515.0 +j   -319.2      605.9       0.8500
670      3     -1061.5 +j   -613.1     1225.8       0.8659
   TERMINAL TOTAL -2633.9 +j  -1605.7     3084.8       0.8539

ELEMENT = "Line.670671"
670      1      1040.5 +j    663.4     1234.0       0.8432
670      2       449.0 +j    281.2      529.7       0.8475
670      3       944.5 +j    545.1     1090.5       0.8661
   TERMINAL TOTAL  2433.9 +j   1489.7     2853.6       0.8529
671      1     -1033.7 +j   -610.5     1200.5       0.8610
671      2      -452.9 +j   -280.0      532.4       0.8506
671      3      -919.3 +j   -511.1     1051.8       0.8740
   TERMINAL TOTAL -2405.9 +j  -1401.6     2784.4       0.8641

ELEMENT = "Line.671680"
671      1        -0.0 +j     -0.0        0.0       0.0264
671      2         0.0 +j     -0.0        0.0      -0.0109
671      3         0.0 +j     -0.0        0.0      -0.0144
   TERMINAL TOTAL     0.0 +j     -0.0        0.0      -0.0000
680      1         0.0 +j      0.0        0.0       0.7055
680      2        -0.0 +j     -0.0        0.0       0.0363
680      3         0.0 +j      0.0        0.0       1.0000
   TERMINAL TOTAL     0.0 +j     -0.0        0.0      -0.5642

ELEMENT = "Line.632633"
632      1       160.3 +j    110.5      194.7       0.8234
632      2       120.2 +j     90.3      150.3       0.7995
632      3       120.3 +j     90.3      150.4       0.7999
   TERMINAL TOTAL   400.8 +j    291.0      495.3       0.8092
633      1      -160.0 +j   -110.0      194.2       0.8240
633      2      -120.0 +j    -90.0      150.0       0.8000
633      3      -120.0 +j    -90.0      150.0       0.8000
   TERMINAL TOTAL  -400.0 +j   -290.0      494.1       0.8096

ELEMENT = "Line.632645"
632      2       330.4 +j    129.1      354.8       0.9315
632      3        74.4 +j    131.6      151.2       0.4920
   TERMINAL TOTAL   404.8 +j    260.7      481.5       0.8407
645      2      -327.9 +j   -126.9      351.6       0.9326
645      3       -74.2 +j   -131.4      150.9       0.4915
   TERMINAL TOTAL  -402.1 +j   -258.3      477.9       0.8413

ELEMENT = "Line.645646"
645      2       157.9 +j      1.9      157.9       0.9999
645      3        74.2 +j    131.4      150.9       0.4915
   TERMINAL TOTAL   232.1 +j    133.3      267.6       0.8671
646      2      -157.7 +j     -1.7      157.7       0.9999
646      3       -73.9 +j   -131.2      150.6       0.4908
   TERMINAL TOTAL  -231.6 +j   -132.9      267.0       0.8673

ELEMENT = "Line.692675"
692      1       488.5 +j    192.8      525.1       0.9302
692      2        67.9 +j     60.0       90.6       0.7493
692      3       277.1 +j    201.7      342.7       0.8084
   TERMINAL TOTAL   833.4 +j    454.5      949.2       0.8779
675      1      -485.0 +j   -190.0      520.8       0.9311
675      2       -68.0 +j    -60.0       90.7       0.7498
675      3      -275.7 +j   -201.6      341.5       0.8073
   TERMINAL TOTAL  -828.7 +j   -451.5      943.7       0.8781

ELEMENT = "Line.671684"
671      1       117.3 +j     78.7      141.2       0.8305
671      3       153.9 +j     72.7      170.2       0.9041
   TERMINAL TOTAL   271.2 +j    151.4      310.6       0.8731
684      1      -117.2 +j    -78.4      141.0       0.8310
684      3      -153.4 +j    -72.4      169.6       0.9043
   TERMINAL TOTAL  -270.5 +j   -150.8      309.7       0.8734

ELEMENT = "Line.684611"
684      3       153.4 +j     72.4      169.6       0.9043
   TERMINAL TOTAL   153.4 +j     72.4      169.6       0.9043
611      3      -152.9 +j    -72.0      169.0       0.9048
   TERMINAL TOTAL  -152.9 +j    -72.0      169.0       0.9048

ELEMENT = "Line.684652"
684      1       117.2 +j     78.4      141.0       0.8310
   TERMINAL TOTAL   117.2 +j     78.4      141.0       0.8310
652      1      -116.4 +j    -78.2      140.2       0.8300
   TERMINAL TOTAL  -116.4 +j    -78.2      140.2       0.8300

ELEMENT = "Line.671692"
671      1       531.4 +j    311.8      616.1       0.8625
671      2        67.8 +j     59.9       90.5       0.7493
671      3       396.7 +j    227.7      457.4       0.8673
   TERMINAL TOTAL   995.9 +j    599.4     1162.4       0.8568
692      1      -531.4 +j   -311.2      615.8       0.8629
692      2       -67.9 +j    -60.0       90.6       0.7493
692      3      -396.4 +j   -227.4      457.0       0.8674
   TERMINAL TOTAL  -995.6 +j   -598.6     1161.7       0.8570

= = = = = = = = = = = = = = = = = = =  = = = = = = = = = = =  = =

Power Conversion Elements

  Bus Phase     kW   +j  kvar         kVA         PF

ELEMENT = "Load.671"
671      1     385.0 +j  220.0      443.4       0.8683
671      2     385.0 +j  220.0      443.5       0.8682
671      3     368.8 +j  210.8      424.8       0.8682
671      0       0.0 +j    0.0        0.0       1.0000
  TERMINAL TOTAL   1138.8 +j    650.7     1311.6       0.8682

ELEMENT = "Load.633A"
633      1     160.0 +j  110.0      194.2       0.8241
633      0       0.0 +j    0.0        0.0       1.0000
  TERMINAL TOTAL    160.0 +j    110.0      194.2       0.8241

ELEMENT = "Load.633B"
633      2     120.0 +j   90.0      150.0       0.8000
633      0       0.0 +j    0.0        0.0       1.0000
  TERMINAL TOTAL    120.0 +j     90.0      150.0       0.8000

ELEMENT = "Load.633C"
633      3     120.0 +j   90.0      150.0       0.8000
633      0       0.0 +j    0.0        0.0       1.0000
  TERMINAL TOTAL    120.0 +j     90.0      150.0       0.8000

ELEMENT = "Load.645"
645      2     170.0 +j  125.0      211.0       0.8056
645      0       0.0 +j    0.0        0.0       1.0000
  TERMINAL TOTAL    170.0 +j    125.0      211.0       0.8056

ELEMENT = "Load.646"
646      2     157.7 +j    1.7      157.7       0.9999
646      3      73.9 +j  131.2      150.6       0.4908
  TERMINAL TOTAL    231.6 +j    132.9      267.0       0.8673

ELEMENT = "Load.692"
692      1      42.9 +j  118.4      126.0       0.3405
692      3     119.4 +j   25.7      122.1       0.9776
  TERMINAL TOTAL    162.3 +j    144.1      217.0       0.7477

ELEMENT = "Load.675A"
675      1     485.0 +j  190.0      520.9       0.9311
675      0       0.0 +j    0.0        0.0       1.0000
  TERMINAL TOTAL    485.0 +j    190.0      520.9       0.9311

ELEMENT = "Load.675B"
675      2      68.0 +j   60.0       90.7       0.7498
675      0       0.0 +j    0.0        0.0       1.0000
  TERMINAL TOTAL     68.0 +j     60.0       90.7       0.7498

ELEMENT = "Load.675C"
675      3     275.7 +j  201.6      341.5       0.8073
675      0       0.0 +j    0.0        0.0       1.0000
  TERMINAL TOTAL    275.7 +j    201.6      341.5       0.8073

ELEMENT = "Load.611"
611      3     152.9 +j   72.0      169.0       0.9048
611      0       0.0 +j    0.0        0.0       1.0000
  TERMINAL TOTAL    152.9 +j     72.0      169.0       0.9048

ELEMENT = "Load.652"
652      1     116.4 +j   78.2      140.2       0.8301
652      0       0.0 +j    0.0        0.0       1.0000
  TERMINAL TOTAL    116.4 +j     78.2      140.2       0.8301

ELEMENT = "Load.670A"
670      1      17.0 +j   10.0       19.7       0.8620
670      0       0.0 +j    0.0        0.0       1.0000
  TERMINAL TOTAL     17.0 +j     10.0       19.7       0.8620

ELEMENT = "Load.670B"
670      2      66.0 +j   38.0       76.2       0.8666
670      0       0.0 +j    0.0        0.0       1.0000
  TERMINAL TOTAL     66.0 +j     38.0       76.2       0.8666

ELEMENT = "Load.670C"
670      3     117.0 +j   68.0      135.3       0.8646
670      0       0.0 +j    0.0        0.0       1.0000
  TERMINAL TOTAL    117.0 +j     68.0      135.3       0.8646

ELEMENT = "Load.650"
650      1       0.0 +j    0.0        0.0       1.0000
650      2       0.0 +j    0.0        0.0       1.0000
650      3       0.0 +j    0.0        0.0       1.0000
650      0       0.0 +j    0.0        0.0       1.0000
  TERMINAL TOTAL      0.0 +j      0.0        0.0       1.0000

ELEMENT = "Load.632"
632      1       0.0 +j    0.0        0.0       1.0000
632      2       0.0 +j    0.0        0.0       1.0000
632      3       0.0 +j    0.0        0.0       1.0000
632      0       0.0 +j    0.0        0.0       1.0000
  TERMINAL TOTAL      0.0 +j      0.0        0.0       1.0000

ELEMENT = "Load.680"
680      1       0.0 +j    0.0        0.0       1.0000
680      2       0.0 +j    0.0        0.0       1.0000
680      3       0.0 +j    0.0        0.0       1.0000
680      0       0.0 +j    0.0        0.0       1.0000
  TERMINAL TOTAL      0.0 +j      0.0        0.0       1.0000

ELEMENT = "Load.684"
684      1       0.0 +j    0.0        0.0       1.0000
684      3       0.0 +j    0.0        0.0       1.0000
  TERMINAL TOTAL      0.0 +j      0.0        0.0       1.0000


Total Circuit Losses =  126.8 +j  378.6
