examples/13NodeIEEE/OpenDSS files/IEEE13Nodeckt_Power_seq_MVA.txt

SYMMETRICAL COMPONENT POWERS BY CIRCUIT ELEMENT (first 3 phases)                                     Excess Power

Element            Term    P1(MW)   Q1(Mvar)       P2         Q2      P0      Q0       P_Norm      Q_Norm     P_Emerg    Q_Emerg

"Vsource.SOURCE"    1       -3.5       -2.4        0.0        0.0     0.0     0.0
"Vsource.SOURCE"    2        0.0        0.0        0.0        0.0     0.0     0.0
"Transformer.XFM1"  1        0.0        0.0       -0.0        0.0     0.0     0.0        0.0        0.0        0.0        0.0
"Transformer.XFM1"  2        0.0        0.0       -0.0       -0.0    -0.0    -0.0
"Line.650632"       1        3.5        2.4       -0.0       -0.0    -0.0    -0.0        1.4        0.9        0.3        0.2
"Line.650632"       2       -3.5       -2.2        0.0        0.0     0.0     0.0
"Line.632670"       1        2.7        1.7       -0.0       -0.0    -0.0    -0.0        0.6        0.4        0.0        0.0
"Line.632670"       2       -2.7       -1.6        0.0        0.0     0.0     0.0
"Line.670671"       1        2.5        1.5       -0.0       -0.0    -0.0    -0.0        0.6        0.3        0.0        0.0
"Line.670671"       2       -2.4       -1.4        0.0        0.0     0.0     0.0
"Line.671680"       1        0.0       -0.0        0.0       -0.0    -0.0    -0.0        0.0        0.0        0.0        0.0
"Line.671680"       2        0.0       -0.0       -0.0       -0.0     0.0    -0.0
"Line.632633"       1        0.4        0.3       -0.0        0.0     0.0    -0.0        0.0        0.0        0.0        0.0
"Line.632633"       2       -0.4       -0.3        0.0       -0.0    -0.0     0.0
"Line.632645"       1        0.0        0.0        0.0        0.0     0.0     0.0        0.0        0.0        0.0        0.0
"Line.632645"       2        0.0        0.0        0.0        0.0     0.0     0.0
"Line.645646"       1        0.0        0.0        0.0        0.0     0.0     0.0        0.0        0.0        0.0        0.0
"Line.645646"       2        0.0        0.0        0.0        0.0     0.0     0.0
"Line.692675"       1        0.8        0.5       -0.0       -0.0    -0.0    -0.0        0.0        0.0        0.0        0.0
"Line.692675"       2       -0.8       -0.5        0.0        0.0     0.0     0.0
"Line.671684"       1        0.0        0.0        0.0        0.0     0.0     0.0        0.0        0.0        0.0        0.0
"Line.671684"       2        0.0        0.0        0.0        0.0     0.0     0.0
"Line.684611"       1        0.0        0.0        0.0        0.0     0.0     0.0        0.0        0.0        0.0        0.0
"Line.684611"       2        0.0        0.0        0.0        0.0     0.0     0.0
"Line.684652"       1        0.0        0.0        0.0        0.0     0.0     0.0        0.0        0.0        0.0        0.0
"Line.684652"       2        0.0        0.0        0.0        0.0     0.0     0.0
"Line.671692"       1        1.0        0.6       -0.0       -0.0    -0.0    -0.0        0.0        0.0        0.0        0.0
"Line.671692"       2       -1.0       -0.6        0.0        0.0     0.0     0.0
"Load.671"          1        1.1        0.7       -0.0       -0.0     0.0    -0.0
"Load.633A"         1        0.0        0.0        0.0        0.0     0.0     0.0
"Load.633B"         1        0.0        0.0        0.0        0.0     0.0     0.0
"Load.633C"         1        0.0        0.0        0.0        0.0     0.0     0.0
"Load.645"          1        0.0        0.0        0.0        0.0     0.0     0.0
"Load.646"          1        0.0        0.0        0.0        0.0     0.0     0.0
"Load.692"          1        0.0        0.0        0.0        0.0     0.0     0.0
"Load.675A"         1        0.0        0.0        0.0        0.0     0.0     0.0
"Load.675B"         1        0.0        0.0        0.0        0.0     0.0     0.0
"Load.675C"         1        0.0        0.0        0.0        0.0     0.0     0.0
"Load.611"          1        0.0        0.0        0.0        0.0     0.0     0.0
"Load.652"          1        0.0        0.0        0.0        0.0     0.0     0.0
"Load.670A"         1        0.0        0.0        0.0        0.0     0.0     0.0
"Load.670B"         1        0.0        0.0        0.0        0.0     0.0     0.0
"Load.670C"         1        0.0        0.0        0.0        0.0     0.0     0.0
"Load.650"          1        0.0        0.0        0.0        0.0     0.0     0.0
"Load.632"          1        0.0        0.0        0.0        0.0     0.0     0.0
"Load.680"          1        0.0        0.0        0.0        0.0     0.0     0.0
"Load.684"          1        0.0        0.0        0.0        0.0     0.0     0.0

Total Circuit Losses =    0.1 +j    0.4
